
     RDKit          3D

 38 40  0  0  0  0  0  0  0  0999 V2000
    0.1870    0.3122    1.7821 O   0  0  0  0  0  0  0  0  0  0  0  0
    0.0324    0.0541    0.3087 P   0  0  0  0  0  0  0  0  0  0  0  0
   -0.9344   -1.1796   -0.0750 O   0  0  0  0  0  0  0  0  0  0  0  0
   -0.7503   -2.4703    0.3303 C   0  0  0  0  0  0  0  0  0  0  0  0
   -1.6409   -3.4057   -0.1996 C   0  0  0  0  0  0  0  0  0  0  0  0
   -1.5369   -4.7526    0.1494 C   0  0  0  0  0  0  0  0  0  0  0  0
   -0.5415   -5.1657    1.0324 C   0  0  0  0  0  0  0  0  0  0  0  0
    0.3462   -4.2317    1.5653 C   0  0  0  0  0  0  0  0  0  0  0  0
    0.2430   -2.8826    1.2159 C   0  0  0  0  0  0  0  0  0  0  0  0
    1.3995   -0.2922   -0.4754 O   0  0  0  0  0  0  0  0  0  0  0  0
    2.4930    0.5234   -0.5345 C   0  0  0  0  0  0  0  0  0  0  0  0
    2.6164    1.7250    0.1596 C   0  0  0  0  0  0  0  0  0  0  0  0
    3.7802    2.4873    0.0277 C   0  0  0  0  0  0  0  0  0  0  0  0
    4.8180    2.0493   -0.7942 C   0  0  0  0  0  0  0  0  0  0  0  0
    4.6956    0.8459   -1.4855 C   0  0  0  0  0  0  0  0  0  0  0  0
    3.5342    0.0840   -1.3541 C   0  0  0  0  0  0  0  0  0  0  0  0
   -0.5799    1.2801   -0.5432 O   0  0  0  0  0  0  0  0  0  0  0  0
   -1.7974    1.8555   -0.3178 C   0  0  0  0  0  0  0  0  0  0  0  0
   -2.1860    2.8330   -1.2355 C   0  0  0  0  0  0  0  0  0  0  0  0
   -3.4140    3.4806   -1.0961 C   0  0  0  0  0  0  0  0  0  0  0  0
   -4.2553    3.1520   -0.0353 C   0  0  0  0  0  0  0  0  0  0  0  0
   -3.8665    2.1784    0.8842 C   0  0  0  0  0  0  0  0  0  0  0  0
   -2.6369    1.5291    0.7451 C   0  0  0  0  0  0  0  0  0  0  0  0
   -2.4191   -3.0865   -0.8882 H   0  0  0  0  0  0  0  0  0  0  0  0
   -2.2320   -5.4772   -0.2662 H   0  0  0  0  0  0  0  0  0  0  0  0
   -0.4584   -6.2140    1.3078 H   0  0  0  0  0  0  0  0  0  0  0  0
    1.1201   -4.5529    2.2584 H   0  0  0  0  0  0  0  0  0  0  0  0
    0.9470   -2.1839    1.6581 H   0  0  0  0  0  0  0  0  0  0  0  0
    1.8338    2.0947    0.8154 H   0  0  0  0  0  0  0  0  0  0  0  0
    3.8773    3.4239    0.5714 H   0  0  0  0  0  0  0  0  0  0  0  0
    5.7221    2.6447   -0.8929 H   0  0  0  0  0  0  0  0  0  0  0  0
    5.5033    0.5000   -2.1252 H   0  0  0  0  0  0  0  0  0  0  0  0
    3.4422   -0.8549   -1.8942 H   0  0  0  0  0  0  0  0  0  0  0  0
   -1.5316    3.0923   -2.0639 H   0  0  0  0  0  0  0  0  0  0  0  0
   -3.7124    4.2404   -1.8135 H   0  0  0  0  0  0  0  0  0  0  0  0
   -5.2120    3.6555    0.0774 H   0  0  0  0  0  0  0  0  0  0  0  0
   -4.5205    1.9253    1.7152 H   0  0  0  0  0  0  0  0  0  0  0  0
   -2.3653    0.7829    1.4858 H   0  0  0  0  0  0  0  0  0  0  0  0
  1  2  2  0
  2  3  1  0
  3  4  1  0
  4  5  2  0
  5  6  1  0
  6  7  2  0
  7  8  1  0
  8  9  2  0
  2 10  1  0
 10 11  1  0
 11 12  2  0
 12 13  1  0
 13 14  2  0
 14 15  1  0
 15 16  2  0
  2 17  1  0
 17 18  1  0
 18 19  2  0
 19 20  1  0
 20 21  2  0
 21 22  1  0
 22 23  2  0
  9  4  1  0
 16 11  1  0
 23 18  1  0
  5 24  1  0
  6 25  1  0
  7 26  1  0
  8 27  1  0
  9 28  1  0
 12 29  1  0
 13 30  1  0
 14 31  1  0
 15 32  1  0
 16 33  1  0
 19 34  1  0
 20 35  1  0
 21 36  1  0
 22 37  1  0
 23 38  1  0
M  END
$$$$
