REMARK SMILES O=P(Oc1ccccc1)(Oc1ccccc1)Oc1ccccc1
REMARK SMILES IDX 1 1 2 2 3 3 4 4 5 5 9 6 6 7 8 8 7 9 10 10 11 11 12 12 16 13
REMARK SMILES IDX 13 14 15 15 14 16 17 17 18 18 19 19 23 20 20 21 22 22 21 23
REMARK H PARENT
ROOT
ATOM      1  O   LIG     1       0.187   0.312   1.782  1.00  0.00    -0.194 OA
ATOM      2  P   LIG     1       0.032   0.054   0.309  1.00  0.00     0.647 P 
ENDROOT
BRANCH   2   3
ATOM      3  O   LIG     1      -0.934  -1.180  -0.075  1.00  0.00    -0.386 OA
BRANCH   3   4
ATOM      4  C   LIG     1      -0.750  -2.470   0.330  1.00  0.00     0.133 A 
ATOM      5  C   LIG     1      -1.641  -3.406  -0.200  1.00  0.00     0.047 A 
ATOM      6  C   LIG     1       0.243  -2.883   1.216  1.00  0.00     0.047 A 
ATOM      7  C   LIG     1      -1.537  -4.753   0.149  1.00  0.00     0.004 A 
ATOM      8  C   LIG     1       0.346  -4.232   1.565  1.00  0.00     0.004 A 
ATOM      9  C   LIG     1      -0.541  -5.166   1.032  1.00  0.00     0.000 A 
ENDBRANCH   3   4
ENDBRANCH   2   3
BRANCH   2  10
ATOM     10  O   LIG     1       1.399  -0.292  -0.475  1.00  0.00    -0.386 OA
BRANCH  10  11
ATOM     11  C   LIG     1       2.493   0.523  -0.534  1.00  0.00     0.133 A 
ATOM     12  C   LIG     1       2.616   1.725   0.160  1.00  0.00     0.047 A 
ATOM     13  C   LIG     1       3.534   0.084  -1.354  1.00  0.00     0.047 A 
ATOM     14  C   LIG     1       3.780   2.487   0.028  1.00  0.00     0.004 A 
ATOM     15  C   LIG     1       4.696   0.846  -1.486  1.00  0.00     0.004 A 
ATOM     16  C   LIG     1       4.818   2.049  -0.794  1.00  0.00     0.000 A 
ENDBRANCH  10  11
ENDBRANCH   2  10
BRANCH   2  17
ATOM     17  O   LIG     1      -0.580   1.280  -0.543  1.00  0.00    -0.386 OA
BRANCH  17  18
ATOM     18  C   LIG     1      -1.797   1.855  -0.318  1.00  0.00     0.133 A 
ATOM     19  C   LIG     1      -2.186   2.833  -1.236  1.00  0.00     0.047 A 
ATOM     20  C   LIG     1      -2.637   1.529   0.745  1.00  0.00     0.047 A 
ATOM     21  C   LIG     1      -3.414   3.481  -1.096  1.00  0.00     0.004 A 
ATOM     22  C   LIG     1      -3.866   2.178   0.884  1.00  0.00     0.004 A 
ATOM     23  C   LIG     1      -4.255   3.152  -0.035  1.00  0.00     0.000 A 
ENDBRANCH  17  18
ENDBRANCH   2  17
TORSDOF 6
